
**** 04/22/19 11:38:31 ****** PSpice Lite (October 2012) ****** ID# 10813 ****

 ** Profile: "SCHEMATIC1-lab3simu"  [ D:\academic glasgow\junior second\ccd\labfile\lab3-pspicefiles\schematic1\lab3simu.sim ] 


 ****     CIRCUIT DESCRIPTION


******************************************************************************




** Creating circuit file "lab3simu.cir" 
** WARNING: THIS AUTOMATICALLY GENERATED FILE MAY BE OVERWRITTEN BY SUBSEQUENT SIMULATIONS

*Libraries: 
* Profile Libraries :
* Local Libraries :
* From [PSPICE NETLIST] section of C:\Users\Amberisy\AppData\Roaming\SPB_Data\cdssetup\OrCAD_PSpice/16.6.0/PSpice.ini file:
.lib "nomd.lib" 

*Analysis directives: 
.TRAN  0 1000ns 0 
.OPTIONS ADVCONV
.PROBE64 V(alias(*)) I(alias(*)) W(alias(*)) D(alias(*)) NOISE(alias(*)) 
.INC "..\SCHEMATIC1.net" 



**** INCLUDING SCHEMATIC1.net ****
* source LAB3
R_R1         N00723 N01164  3.3k TC=0,0 
R_R2         N00508 N00429  3.3k TC=0,0 
R_R3         N00429 N00331  3.3k TC=0,0 
R_R4         0 N003580  3.3k TC=0,0 
R_R5         0 N003760  3.3k TC=0,0 
C_C1         N00429 0  0.1u  TC=0,0 
R_R6         N01164 N00508  6.8k TC=0,0 
R_R8         N00331 N00609  6.8k TC=0,0 
C_C2         N00867 N00609  0.1u  TC=0,0 
R_R9         0 N00867  3.3k TC=0,0 
R_R10         N02286 N00867  3.3k TC=0,0 
V_V1         N00723 N02286  AC 0
+SIN 0 100mV 500Hz 0 0 0
X_U2         N003580 N01164 N02035 N02173 N00508 LM741
X_U3         N003760 N00331 N02219 N02230 N00609 LM741
V_V2         N02035 N02173 12V
V_V4         N02219 N02230 12V

**** RESUMING lab3simu.cir ****
.END

INFO(ORPSIM-15423): Unable to find index file nomd.ind for library file nomd.lib.

INFO(ORPSIM-15422): Making new index file nomd.ind for library file nomd.lib.

Index has 809 entries from 6 file(s).

ERROR(ORPSIM-15108): Subcircuit LM741 used by X_U2 is undefined

ERROR(ORPSIM-15108): Subcircuit LM741 used by X_U3 is undefined
